<additional>
    <vType id="pkw" vClass="passenger" speedDev="0.1" length="4.5" minGap="2.0"/>
</additional>
